CUSTOMER NUMBER	SALUTATION	FIRST NAME	LAST NAME	COMPANY	STREET	CITY	STATE	COUNTRY	PIN	PHONE	EMAIL	CREDIT LIMIT
ALS-0034	MR.	ALLEN	ROCHESTER	AL'S ALL TERRAIN VEHICLES		OLD LYME	CT	USA		8005557473		50000
ATV-0027	MRS.	CHRISTINE	LYNDSEY	ATV MOTOR SPORTS		MANCHESTER	CT	USA		8005559297		45000
BAN-0033	MR.	KIMBERLY	BANKCROFT	FREAKY FRIDAY'S	310 TORPEDO ROAD	SHINGELTON	CA	USA	65114	8005554472		25000
BIL-0042	MR.	WILLIAM	HARTE	BILL'S DODGE PONTIAC OLDMOBILE			CT	USA				16000
BRU-0037	MR.	RONALD	HENDERSON	BOATS R US			TX	USA				4500
BUC-0037	MR.	BUCK	STARBOARD	BUCKY'S BOAT-A-RAMA		DAYVILLE	CT	USA		8005554771		3500
CAR-0047	MS.	SHELLEY	ROGERS	CARS OF OURS			NY	USA				6000
CHU-0017	MR.	CHARLES	MOTORMAN	CHUCK'S TRUCKS		NEWINGTON	CT	USA		8005558882		85000
DAL-0029	MR.	TIMOTHY	DALTON		76 DAY BREAT STATION	PLAINVILLE	CA	USA	06062	8605556556		8000
DAN-0039	MR.	DANIEL	MERRIMACK	DAN'S CAR AND TRUCK SUPER STORE			CT	USA				6500
DER-0008	MS.	RONDA	DERRICK		14 NEW PORT ROAD	BRISTOL	CA	USA	06010	8605554698		3300
ENG-0033	MR.	BRITTANY	ENGLEBERT			ELLINGTON	CT	USA		8605559974		25500
FRO-0023	MR.	HERBERT	FROG		490 SOUTH MINS	PARIS	CA	USA	16544-5809	8085559999		1500
HAR-0003	MR.	CARL	HARRISON			EAST HARTFORD				8605554779		3000
ICE-0067	MR.	FRANK	ICEBURG		44 SNOWY LA.	QUEBEC	CA	USA	55523-5431	5558559982		2500
JER-0030	MR.	JERRY	SWIMMER	JERRY'S JET-SKI ACTION PARD			CT	USA				25000
KEV-0020	MR.	KEVIN	WHEELER	KEVIN'S QUADS			CT	USA				450000
LAW-0046	MR.	GREGORY	LAWRENCE	SEAWATER SWANS	277 SEAWEED	WATERLOO	CA	USA	55499	8005553311		6500
LEA-0038	MS.	SHIRLEY	TRIBUANI	LEAPIN LIZARDS JET SKI'S AND BOAT			CT	USA				3500
MAN-0019	MR.	DOMINIC	MANCINI	MANCINI TRUCK RENTALS			CT	USA				40000
MAR-0050	MR.	BOB	MARSALA			WEST HAVEN	CT	USA		8605550114		20000
PLE-0040	MR.	BRAIN	ZACCARDO			UNIONVILLE	CT	USA		8005559860		200
TRU-0036	MR	ANTHONY	FASUIO	TURCKLAND USA	675 SPORT WORLDS	TRUCK STOP	CA	USA	90221	8005554949		2000
VAN-0040	MRS.	ESMERELDA	VAN HINKELBUN	HINKLEBURG'S AUTO MALL	902 SOUTH TERRACE	DENVER	CA	USA	44236	8005558799		360
WAS-0023	MR.	GERLAD	WASLEY	WASLEY CHEVY PONTIAC	210 NEW CAR ROAD	FARMINGTON	CA	USA	06032	8005552456		900
WAV-0028	MR.	APRIL	WAVES			BRISTOL	CT	USA		8605552227		7500
WEN-0098	MS.	WENDY	O'KEEFE		1212 TERRANCE	SAN FRANCISCO	CA	USA	90224	8005553340		6000
WES-0049	MS.	ALLISON	WESLEY	WASLEY CHEVY PONTIAC	4210 FRANKLIN	HARTFORD	CA	USA	06105	5555559923		2500
WET-0023	MR.	BARBARA	WETWORTH			BURLINGTON	CT	USA		8605556647		4000
WHE-0035	MR.	DOUGLAS	GRONSER	WHEELS AND DEALS			CT	USA				5000
WIP-0024	MR.	HENRY	CHIPPANY	WIPEOUT SPORT STORE	275 SURF LA	LOS ANGELIS	CA	USA	90210	8005559849		5000
ZEE-0045	MR.	CHRISTOPHER	ZURKOWITZ	ZEE BROTHERS ATV RENTAL		COBALT	CT	USA		8005558877		27000
